data_image0
_chemical_formula_structural       Li12La20Ti36O108
_chemical_formula_sum              "Li12 La20 Ti36 O108"
_cell_length_a       11.636
_cell_length_b       15.81
_cell_length_c       11.636
_cell_angle_alpha    90
_cell_angle_beta     90
_cell_angle_gamma    90

_space_group_name_H-M_alt    "P 1"
_space_group_IT_number       1

loop_
  _space_group_symop_operation_xyz
  'x, y, z'

loop_
  _atom_site_type_symbol
  _atom_site_label
  _atom_site_symmetry_multiplicity
  _atom_site_fract_x
  _atom_site_fract_y
  _atom_site_fract_z
  _atom_site_occupancy
  Li  Li1       1.0  0.33687  0.02201  0.95112  1.0000
  Li  Li2       1.0  0.00180  0.00109  0.21354  1.0000
  Li  Li3       1.0  0.33620  0.00097  0.22984  1.0000
  Li  Li4       1.0  0.82424  0.00121  0.00830  1.0000
  Li  Li5       1.0  0.00706  0.00139  0.54908  1.0000
  Li  Li6       1.0  0.67889  0.00032  0.76993  1.0000
  Li  Li7       1.0  0.33687  0.52201  0.95112  1.0000
  Li  Li8       1.0  0.00180  0.50109  0.21354  1.0000
  Li  Li9       1.0  0.33620  0.50097  0.22984  1.0000
  Li  Li10      1.0  0.82424  0.50121  0.00830  1.0000
  Li  Li11      1.0  0.00706  0.50139  0.54908  1.0000
  Li  Li12      1.0  0.67889  0.50031  0.76993  1.0000
  La  La1       1.0  0.00076  0.25130  0.01102  1.0000
  La  La2       1.0  0.33539  0.25149  0.01502  1.0000
  La  La3       1.0  0.67076  0.25152  0.01346  1.0000
  La  La4       1.0  0.99682  0.25089  0.34381  1.0000
  La  La5       1.0  0.33851  0.25150  0.33920  1.0000
  La  La6       1.0  0.67025  0.25112  0.35218  1.0000
  La  La7       1.0  0.00201  0.25185  0.67407  1.0000
  La  La8       1.0  0.33420  0.00087  0.67073  1.0000
  La  La9       1.0  0.33602  0.25171  0.67631  1.0000
  La  La10      1.0  0.67164  0.25194  0.67700  1.0000
  La  La11      1.0  0.00076  0.75130  0.01102  1.0000
  La  La12      1.0  0.33538  0.75149  0.01502  1.0000
  La  La13      1.0  0.67076  0.75152  0.01346  1.0000
  La  La14      1.0  0.99682  0.75089  0.34381  1.0000
  La  La15      1.0  0.33851  0.75150  0.33920  1.0000
  La  La16      1.0  0.67025  0.75112  0.35219  1.0000
  La  La17      1.0  0.00201  0.75185  0.67407  1.0000
  La  La18      1.0  0.33420  0.50087  0.67073  1.0000
  La  La19      1.0  0.33602  0.75171  0.67631  1.0000
  La  La20      1.0  0.67164  0.75194  0.67700  1.0000
  Ti  Ti1       1.0  0.16869  0.12271  0.17631  1.0000
  Ti  Ti2       1.0  0.16897  0.37946  0.17692  1.0000
  Ti  Ti3       1.0  0.50685  0.12116  0.17723  1.0000
  Ti  Ti4       1.0  0.50640  0.38124  0.17792  1.0000
  Ti  Ti5       1.0  0.83163  0.12249  0.18027  1.0000
  Ti  Ti6       1.0  0.83173  0.37982  0.18027  1.0000
  Ti  Ti7       1.0  0.17014  0.37875  0.50507  1.0000
  Ti  Ti8       1.0  0.50351  0.12128  0.50748  1.0000
  Ti  Ti9       1.0  0.50398  0.38147  0.50780  1.0000
  Ti  Ti10      1.0  0.83352  0.12008  0.51214  1.0000
  Ti  Ti11      1.0  0.83369  0.38276  0.51178  1.0000
  Ti  Ti12      1.0  0.16650  0.12330  0.84446  1.0000
  Ti  Ti13      1.0  0.16875  0.38039  0.84605  1.0000
  Ti  Ti14      1.0  0.50472  0.12337  0.84502  1.0000
  Ti  Ti15      1.0  0.50254  0.38048  0.84689  1.0000
  Ti  Ti16      1.0  0.83713  0.12228  0.84021  1.0000
  Ti  Ti17      1.0  0.83764  0.37999  0.84083  1.0000
  Ti  Ti18      1.0  0.17055  0.12377  0.50471  1.0000
  Ti  Ti19      1.0  0.16869  0.62271  0.17631  1.0000
  Ti  Ti20      1.0  0.16897  0.87946  0.17692  1.0000
  Ti  Ti21      1.0  0.50685  0.62116  0.17723  1.0000
  Ti  Ti22      1.0  0.50640  0.88124  0.17792  1.0000
  Ti  Ti23      1.0  0.83163  0.62249  0.18027  1.0000
  Ti  Ti24      1.0  0.83173  0.87982  0.18027  1.0000
  Ti  Ti25      1.0  0.17014  0.87875  0.50507  1.0000
  Ti  Ti26      1.0  0.50351  0.62128  0.50748  1.0000
  Ti  Ti27      1.0  0.50398  0.88147  0.50780  1.0000
  Ti  Ti28      1.0  0.83352  0.62008  0.51214  1.0000
  Ti  Ti29      1.0  0.83369  0.88276  0.51178  1.0000
  Ti  Ti30      1.0  0.16650  0.62330  0.84446  1.0000
  Ti  Ti31      1.0  0.16875  0.88039  0.84605  1.0000
  Ti  Ti32      1.0  0.50472  0.62337  0.84502  1.0000
  Ti  Ti33      1.0  0.50254  0.88048  0.84689  1.0000
  Ti  Ti34      1.0  0.83713  0.62228  0.84021  1.0000
  Ti  Ti35      1.0  0.83764  0.87999  0.84083  1.0000
  Ti  Ti36      1.0  0.17055  0.62377  0.50471  1.0000
  O   O1        1.0  0.00157  0.13008  0.18326  1.0000
  O   O2        1.0  0.16493  0.00094  0.19127  1.0000
  O   O3        1.0  0.16069  0.14231  0.01020  1.0000
  O   O4        1.0  0.00190  0.37194  0.18214  1.0000
  O   O5        1.0  0.18154  0.25083  0.17205  1.0000
  O   O6        1.0  0.16355  0.35855  0.01045  1.0000
  O   O7        1.0  0.33607  0.11840  0.17387  1.0000
  O   O8        1.0  0.50710  0.00096  0.18346  1.0000
  O   O9        1.0  0.51420  0.14096  0.00997  1.0000
  O   O10       1.0  0.33605  0.38230  0.17976  1.0000
  O   O11       1.0  0.47466  0.25069  0.17466  1.0000
  O   O12       1.0  0.51099  0.35972  0.01057  1.0000
  O   O13       1.0  0.83796  0.00115  0.17549  1.0000
  O   O14       1.0  0.82863  0.12479  0.00908  1.0000
  O   O15       1.0  0.66901  0.34985  0.17973  1.0000
  O   O16       1.0  0.85275  0.25115  0.16550  1.0000
  O   O17       1.0  0.82922  0.37749  0.00945  1.0000
  O   O18       1.0  0.00445  0.12493  0.51567  1.0000
  O   O19       1.0  0.18013  0.00120  0.50591  1.0000
  O   O20       1.0  0.16689  0.14964  0.34362  1.0000
  O   O21       1.0  0.00413  0.37772  0.51591  1.0000
  O   O22       1.0  0.15649  0.25117  0.53412  1.0000
  O   O23       1.0  0.16569  0.35218  0.34411  1.0000
  O   O24       1.0  0.33533  0.14447  0.50227  1.0000
  O   O25       1.0  0.48048  0.00131  0.50870  1.0000
  O   O26       1.0  0.50689  0.14504  0.34462  1.0000
  O   O27       1.0  0.33532  0.35829  0.50342  1.0000
  O   O28       1.0  0.50970  0.25124  0.53057  1.0000
  O   O29       1.0  0.50773  0.35683  0.34500  1.0000
  O   O30       1.0  0.66838  0.13626  0.52084  1.0000
  O   O31       1.0  0.84090  0.00139  0.52776  1.0000
  O   O32       1.0  0.83221  0.13787  0.34495  1.0000
  O   O33       1.0  0.66880  0.36640  0.52041  1.0000
  O   O34       1.0  0.84591  0.25141  0.50070  1.0000
  O   O35       1.0  0.83259  0.36469  0.34470  1.0000
  O   O36       1.0  0.00144  0.14251  0.84070  1.0000
  O   O37       1.0  0.20035  0.00110  0.85506  1.0000
  O   O38       1.0  0.19098  0.11838  0.67827  1.0000
  O   O39       1.0  0.00245  0.35918  0.84224  1.0000
  O   O40       1.0  0.16834  0.25031  0.82143  1.0000
  O   O41       1.0  0.18862  0.38375  0.67838  1.0000
  O   O42       1.0  0.33642  0.14090  0.86344  1.0000
  O   O43       1.0  0.47149  0.00124  0.85063  1.0000
  O   O44       1.0  0.47331  0.12173  0.67802  1.0000
  O   O45       1.0  0.33651  0.35555  0.85539  1.0000
  O   O46       1.0  0.52135  0.25063  0.82835  1.0000
  O   O47       1.0  0.47657  0.38091  0.67788  1.0000
  O   O48       1.0  0.66695  0.11692  0.82060  1.0000
  O   O49       1.0  0.83806  0.00104  0.83652  1.0000
  O   O50       1.0  0.83943  0.15072  0.67721  1.0000
  O   O51       1.0  0.66643  0.38435  0.82409  1.0000
  O   O52       1.0  0.81631  0.25108  0.86157  1.0000
  O   O53       1.0  0.83911  0.35262  0.67757  1.0000
  O   O54       1.0  0.66924  0.15268  0.18035  1.0000
  O   O55       1.0  0.00157  0.63008  0.18326  1.0000
  O   O56       1.0  0.16493  0.50094  0.19127  1.0000
  O   O57       1.0  0.16069  0.64231  0.01020  1.0000
  O   O58       1.0  0.00190  0.87194  0.18214  1.0000
  O   O59       1.0  0.18154  0.75083  0.17205  1.0000
  O   O60       1.0  0.16355  0.85855  0.01045  1.0000
  O   O61       1.0  0.33607  0.61840  0.17387  1.0000
  O   O62       1.0  0.50710  0.50096  0.18346  1.0000
  O   O63       1.0  0.51420  0.64096  0.00997  1.0000
  O   O64       1.0  0.33605  0.88230  0.17976  1.0000
  O   O65       1.0  0.47466  0.75069  0.17466  1.0000
  O   O66       1.0  0.51099  0.85972  0.01057  1.0000
  O   O67       1.0  0.83796  0.50115  0.17549  1.0000
  O   O68       1.0  0.82863  0.62479  0.00908  1.0000
  O   O69       1.0  0.66901  0.84985  0.17973  1.0000
  O   O70       1.0  0.85275  0.75115  0.16550  1.0000
  O   O71       1.0  0.82922  0.87749  0.00945  1.0000
  O   O72       1.0  0.00445  0.62493  0.51567  1.0000
  O   O73       1.0  0.18013  0.50120  0.50591  1.0000
  O   O74       1.0  0.16689  0.64964  0.34362  1.0000
  O   O75       1.0  0.00413  0.87772  0.51591  1.0000
  O   O76       1.0  0.15649  0.75117  0.53412  1.0000
  O   O77       1.0  0.16569  0.85218  0.34411  1.0000
  O   O78       1.0  0.33533  0.64447  0.50227  1.0000
  O   O79       1.0  0.48048  0.50131  0.50870  1.0000
  O   O80       1.0  0.50689  0.64504  0.34462  1.0000
  O   O81       1.0  0.33532  0.85829  0.50342  1.0000
  O   O82       1.0  0.50970  0.75124  0.53057  1.0000
  O   O83       1.0  0.50773  0.85683  0.34500  1.0000
  O   O84       1.0  0.66838  0.63626  0.52084  1.0000
  O   O85       1.0  0.84090  0.50139  0.52776  1.0000
  O   O86       1.0  0.83221  0.63787  0.34495  1.0000
  O   O87       1.0  0.66880  0.86640  0.52041  1.0000
  O   O88       1.0  0.84591  0.75141  0.50070  1.0000
  O   O89       1.0  0.83259  0.86469  0.34470  1.0000
  O   O90       1.0  0.00144  0.64251  0.84070  1.0000
  O   O91       1.0  0.20035  0.50110  0.85506  1.0000
  O   O92       1.0  0.19098  0.61838  0.67827  1.0000
  O   O93       1.0  0.00245  0.85918  0.84224  1.0000
  O   O94       1.0  0.16834  0.75031  0.82143  1.0000
  O   O95       1.0  0.18862  0.88375  0.67838  1.0000
  O   O96       1.0  0.33642  0.64090  0.86344  1.0000
  O   O97       1.0  0.47149  0.50124  0.85063  1.0000
  O   O98       1.0  0.47331  0.62173  0.67802  1.0000
  O   O99       1.0  0.33651  0.85555  0.85539  1.0000
  O   O100      1.0  0.52135  0.75063  0.82835  1.0000
  O   O101      1.0  0.47657  0.88091  0.67788  1.0000
  O   O102      1.0  0.66695  0.61692  0.82060  1.0000
  O   O103      1.0  0.83806  0.50104  0.83652  1.0000
  O   O104      1.0  0.83943  0.65072  0.67721  1.0000
  O   O105      1.0  0.66643  0.88435  0.82409  1.0000
  O   O106      1.0  0.81631  0.75108  0.86157  1.0000
  O   O107      1.0  0.83911  0.85262  0.67757  1.0000
  O   O108      1.0  0.66924  0.65268  0.18035  1.0000
